opendss/LVTestCase/data/PV/PV_344.txt
New generator.m_gen43 Phases=1 Bus1=780.3 kV=0.23 kW=1 PF=0.95 Yearly=PV_Shape_53
New generator.m_gen42 Phases=1 Bus1=778.3 kV=0.23 kW=1 PF=0.95 Yearly=PV_Shape_50
New generator.m_gen13 Phases=1 Bus1=276.2 kV=0.23 kW=1 PF=0.95 Yearly=NM_Shape_94
New generator.m_gen6 Phases=1 Bus1=83.2 kV=0.23 kW=1 PF=0.95 Yearly=NM_Shape_37
New generator.m_gen11 Phases=1 Bus1=249.2 kV=0.23 kW=1 PF=0.95 Yearly=PV_Shape_32
New generator.m_gen37 Phases=1 Bus1=682.2 kV=0.23 kW=1 PF=0.95 Yearly=PV_Shape_152
New generator.m_gen21 Phases=1 Bus1=387.1 kV=0.23 kW=1 PF=0.95 Yearly=PV_Shape_48
New generator.m_gen38 Phases=1 Bus1=688.2 kV=0.23 kW=1 PF=0.95 Yearly=PV_Shape_75
New generator.m_gen17 Phases=1 Bus1=327.3 kV=0.23 kW=1 PF=0.95 Yearly=PV_Shape_54
New generator.m_gen44 Phases=1 Bus1=785.2 kV=0.23 kW=1 PF=0.95 Yearly=PV_Shape_95
New generator.m_gen22 Phases=1 Bus1=388.1 kV=0.23 kW=1 PF=0.95 Yearly=PV_Shape_59
